#    Name:    3ddf_ligand
#    Version:    PDBbind v2024

@<TRIPOS>MOLECULE
3ddf_ligand
   38    39     1     0     0
SMALL
USER_CHARGES

@<TRIPOS>ATOM
      1 O9         29.1240   63.6170   13.1430 O.3       1 GB6         0.0000
      2 O2         31.7860   67.6410    5.8060 O.2       1 GB6         0.0000
      3 O3         33.9280   65.9840    7.0730 O.3       1 GB6         0.0000
      4 O4         33.3470   65.2080    9.5370 O.3       1 GB6         0.0000
      5 N7         30.0900   65.3760   11.0280 N.4       1 GB6         1.0000
      6 N1         30.7800   66.3990    7.4570 N.am      1 GB6         0.0000
      7 C9         29.1040   65.0270   13.3270 C.3       1 GB6         0.0000
      8 C6         29.9950   66.0980    9.7330 C.3       1 GB6         0.0000
      9 C13        27.9310   69.7900   12.4580 C.ar      1 GB6         0.0000
     10 C14        27.0370   68.9770   11.7610 C.ar      1 GB6         0.0000
     11 C12        29.1240   69.2700   12.9820 C.ar      1 GB6         0.0000
     12 C15        27.2850   67.6370   11.5310 C.ar      1 GB6         0.0000
     13 C11        29.4270   67.9340   12.8050 C.ar      1 GB6         0.0000
     14 C2         31.7870   67.0310    6.8950 C.2       1 GB6         0.0000
     15 C3         33.0180   66.8840    7.7760 C.3       1 GB6         0.0000
     16 C4         32.4900   66.2520    9.0390 C.3       1 GB6         0.0000
     17 C8         28.8520   65.5910   11.8840 C.3       1 GB6         0.0000
     18 C5         31.0830   65.6930    8.7260 C.3       1 GB6         0.0000
     19 C10        28.5580   67.0940   12.0920 C.ar      1 GB6         0.0000
     20 H          29.2860   62.9522   14.0043 H         1 GB6         0.0000
     21 H          34.3974   66.3024    6.1305 H         1 GB6         0.0000
     22 H          34.3882   65.4346    9.8102 H         1 GB6         0.0000
     23 H          30.1975   64.2976   10.8395 H         1 GB6         0.0000
     24 H          30.9648   65.7394   11.5871 H         1 GB6         0.0000
     25 H          29.7615   66.3723    7.0424 H         1 GB6         0.0000
     26 H          28.2966   65.2943   14.0246 H         1 GB6         0.0000
     27 H          30.0690   65.3567   13.7394 H         1 GB6         0.0000
     28 H          29.0205   65.8893    9.2675 H         1 GB6         0.0000
     29 H          30.0936   67.1795    9.9080 H         1 GB6         0.0000
     30 H          27.6990   70.8458   12.5977 H         1 GB6         0.0000
     31 H          26.1116   69.4133   11.3851 H         1 GB6         0.0000
     32 H          29.8099   69.9184   13.5272 H         1 GB6         0.0000
     33 H          26.5900   67.0112   10.9712 H         1 GB6         0.0000
     34 H          30.3487   67.5289   13.2226 H         1 GB6         0.0000
     35 H          33.5820   67.8040    7.9892 H         1 GB6         0.0000
     36 H          32.5067   66.9881    9.8562 H         1 GB6         0.0000
     37 H          28.0340   65.0958   11.3403 H         1 GB6         0.0000
     38 H          31.0725   64.5936    8.6924 H         1 GB6         0.0000
@<TRIPOS>BOND
     1    1    7 1
     2    1   20 1
     3    2   14 2
     4    3   15 1
     5    3   21 1
     6    4   16 1
     7    4   22 1
     8    5    8 1
     9    5   17 1
    10    5   23 1
    11    5   24 1
    12    6   14 am
    13    6   18 1
    14    6   25 1
    15    7   17 1
    16    7   26 1
    17    7   27 1
    18    8   18 1
    19    8   28 1
    20    8   29 1
    21    9   10 ar
    22    9   11 ar
    23    9   30 1
    24   10   12 ar
    25   10   31 1
    26   11   13 ar
    27   11   32 1
    28   12   19 ar
    29   12   33 1
    30   13   19 ar
    31   13   34 1
    32   14   15 1
    33   15   16 1
    34   15   35 1
    35   16   18 1
    36   16   36 1
    37   17   19 1
    38   17   37 1
    39   18   38 1

